/*--------------------------------*- C++ -*----------------------------------*\
  =========                 |
  \\      /  F ield         | OpenFOAM: The Open Source CFD Toolbox
   \\    /   O peration     | Website:  https://openfoam.org
    \\  /    A nd           | Version:  7
     \\/     M anipulation  |
\*---------------------------------------------------------------------------*/
FoamFile
{
    version     2.0;
    format      ascii;
    class       polyBoundaryMesh;
    location    "constant/polyMesh";
    object      boundary;
}
// * * * * * * * * * * * * * * * * * * * * * * * * * * * * * * * * * * * * * //

7
(
    bottom
    {
        type            wall;
        nFaces          35;
        startFace       132610;
    }
    flatplate
    {
        type            patch;
        nFaces          600;
        startFace       132645;
    }
    back
    {
        type            patch;
        nFaces          66675;
        startFace       133245;
    }
    front
    {
        type            patch;
        nFaces          66675;
        startFace       199920;
    }
    inlet
    {
        type            patch;
        nFaces          105;
        startFace       266595;
    }
    outlet
    {
        type            patch;
        nFaces          105;
        startFace       266700;
    }
    top
    {
        type            patch;
        nFaces          635;
        startFace       266805;
    }
)

// ************************************************************************* //
