/*--------------------------------*- C++ -*----------------------------------*\
  =========                 |
  \\      /  F ield         | OpenFOAM: The Open Source CFD Toolbox
   \\    /   O peration     | Website:  https://openfoam.org
    \\  /    A nd           | Version:  7
     \\/     M anipulation  |
\*---------------------------------------------------------------------------*/
FoamFile
{
    version     2.0;
    format      ascii;
    class       polyBoundaryMesh;
    location    "constant/polyMesh";
    object      boundary;
}
// * * * * * * * * * * * * * * * * * * * * * * * * * * * * * * * * * * * * * //

6
(
    flatPlate
    {
        type            wall;
        inGroups        List<word> 1(wall);
        nFaces          60;
        startFace       1510;
    }
    symBoundTop
    {
        type            symmetryPlane;
        inGroups        List<word> 1(symmetryPlane);
        nFaces          80;
        startFace       1570;
    }
    symBoundBottom
    {
        type            symmetryPlane;
        inGroups        List<word> 1(symmetryPlane);
        nFaces          20;
        startFace       1650;
    }
    frontAndBack
    {
        type            empty;
        inGroups        List<word> 1(empty);
        nFaces          1600;
        startFace       1670;
    }
    inlet
    {
        type            patch;
        nFaces          10;
        startFace       3270;
    }
    outlet
    {
        type            patch;
        nFaces          10;
        startFace       3280;
    }
)

// ************************************************************************* //
